
&jules_soil_biogeochem
l_layeredc=   .false.,,
l_q10=   .true.,,
l_soil_resp_lev2=   .false.,,
soil_bgc_model=   1,,
/


