
&jules_time
l_leap=    T,,
timestep_len=    1800,,
main_run_start=    '2009-01-01 00:00:00',,
main_run_end=      '2009-12-31 21:00:00',,
/

&jules_spinup
max_spinup_cycles=    3,,
spinup_start=    '2007-01-01 00:00:00',,
spinup_end=      '2007-12-31 21:00:00',,
terminate_on_spinup_fail=    F,,
nvars=    2,,
var=    'smcl' 't_soil',,
tolerance=    1.0 0.2,,
use_percent=    T F,,
/


